Version 4
SHEET 1 3700 4048
WIRE 16 64 -32 64
WIRE 160 64 160 -48
WIRE 160 64 16 64
WIRE 336 64 160 64
WIRE 384 64 336 64
WIRE 720 64 384 64
WIRE 768 64 720 64
WIRE -32 80 -32 64
WIRE 384 80 384 64
WIRE 720 80 720 64
WIRE -96 128 -112 128
WIRE 16 128 16 64
WIRE 16 128 -32 128
WIRE 336 128 336 64
WIRE 384 128 336 128
WIRE 656 128 640 128
WIRE 768 128 768 64
WIRE 768 128 720 128
WIRE -112 208 -112 128
WIRE -32 208 -32 176
WIRE -32 208 -112 208
WIRE -32 224 -32 208
WIRE 448 224 448 128
WIRE 448 224 -32 224
WIRE 384 256 384 176
WIRE 544 256 384 256
WIRE 640 256 640 128
WIRE 640 256 544 256
WIRE 720 256 720 176
WIRE 720 256 704 256
WIRE -32 336 -32 224
WIRE 384 336 384 256
WIRE 720 352 720 256
WIRE 896 352 720 352
WIRE -96 384 -240 384
WIRE 240 384 -32 384
WIRE 384 384 240 384
WIRE 544 384 448 384
WIRE -32 480 -32 432
WIRE 176 480 -32 480
WIRE 384 480 384 432
WIRE 384 480 176 480
WIRE 400 528 48 528
WIRE 176 544 176 480
WIRE 720 544 720 352
WIRE 48 592 48 528
WIRE 48 592 -224 592
WIRE 112 592 48 592
WIRE 240 592 240 384
WIRE 240 592 176 592
WIRE 400 592 400 528
WIRE 656 592 400 592
WIRE 800 592 720 592
WIRE 176 672 176 640
WIRE 240 672 240 592
WIRE 240 672 176 672
WIRE 720 672 720 640
WIRE 720 672 240 672
WIRE 800 672 800 592
WIRE 800 672 720 672
WIRE 240 704 240 672
FLAG 160 -48 AVDD
IOPIN 160 -48 BiDir
FLAG 240 704 AVSS
IOPIN 240 704 BiDir
FLAG 544 384 INP
IOPIN 544 384 In
FLAG -240 384 INM
IOPIN -240 384 In
FLAG -224 592 BIAS
IOPIN -224 592 In
FLAG 896 352 COMP_OUT
IOPIN 896 352 Out
FLAG 544 256 1st_AMP
SYMBOL OR1LIB\\PMOS -96 128 R0
WINDOW 39 24 52 Left 2
SYMATTR InstName U1
SYMATTR Value2 l=8u w=4u m=pm_p1
SYMBOL OR1LIB\\NMOS 448 384 M0
WINDOW 3 56 60 Left 2
WINDOW 38 56 88 Left 2
SYMATTR Value w=1u l=4u m=pm_n1
SYMATTR SpiceModel nch
SYMATTR InstName U2
SYMBOL OR1LIB\\NMOS -96 384 R0
WINDOW 3 56 60 Left 2
WINDOW 38 56 88 Left 2
SYMATTR InstName U3
SYMATTR Value2 w=1u l=4u m=pm_n1
SYMBOL OR1LIB\\PMOS 448 128 M0
WINDOW 39 24 52 Left 2
SYMATTR SpiceLine l=8u w=4u m=pm_p1
SYMATTR InstName U4
SYMBOL OR1LIB\\NMOS 112 592 R0
WINDOW 3 56 60 Left 2
WINDOW 38 56 88 Left 2
SYMATTR Value w=1u l=pl_b1 m=1
SYMATTR SpiceModel nch
SYMATTR InstName U5
SYMBOL OR1LIB\\PMOS 656 128 R0
WINDOW 39 24 52 Left 2
SYMATTR SpiceLine l=1u w=4u m=pm_p2
SYMATTR InstName U6
SYMBOL OR1LIB\\NMOS 656 592 R0
WINDOW 3 56 60 Left 2
WINDOW 38 56 88 Left 2
SYMATTR Value w=pw_b2 l=1u m=1
SYMATTR SpiceModel nch
SYMATTR InstName U7
SYMBOL cap 704 240 R90
WINDOW 0 0 32 VBottom 2
WINDOW 3 32 32 VTop 2
WINDOW 39 60 66 VBottom 2
SYMATTR InstName C1
SYMATTR Value ""
SYMATTR SpiceLine w=10u l=10u
SYMATTR Prefix X
SYMATTR SpiceModel CPIP
TEXT -344 840 Left 2 !.param          pm_p1=2                         pm_n1=6                         pl_b1=40u                       pm_p2=54                        pw_b2=6u
