Version 4
SHEET 1 924 728
WIRE 240 160 -288 160
WIRE 160 304 -32 304
WIRE 240 320 240 160
WIRE 160 368 -112 368
WIRE 576 368 272 368
WIRE -288 384 -288 160
WIRE 160 432 64 432
WIRE -32 560 -32 304
WIRE 64 560 64 432
WIRE 208 560 208 416
WIRE -288 672 -288 464
WIRE -112 672 -112 448
WIRE -112 672 -288 672
WIRE -32 672 -32 640
WIRE -32 672 -112 672
WIRE 16 672 -32 672
WIRE 64 672 64 640
WIRE 64 672 16 672
WIRE 208 672 208 640
WIRE 208 672 64 672
WIRE 16 688 16 672
FLAG 16 688 0
SYMBOL comp_inv_tgate 208 368 R0
SYMATTR InstName X1
SYMBOL voltage -288 368 R0
WINDOW 123 0 0 Left 0
WINDOW 39 0 0 Left 0
SYMATTR InstName V1
SYMATTR Value 1.6v
SYMBOL voltage 208 544 R0
WINDOW 123 0 0 Left 0
WINDOW 39 0 0 Left 0
SYMATTR InstName V2
SYMATTR Value -1.6v
SYMBOL voltage -112 352 R0
WINDOW 123 0 0 Left 0
WINDOW 39 0 0 Left 0
SYMATTR InstName V3
SYMATTR Value PWL(0 5mv 7m 5mv 7.001m -2mv 14m -2mv 14.001m 1mv 21m 1mv 21.001m -500uv)
SYMBOL voltage -32 544 R0
WINDOW 123 0 0 Left 0
WINDOW 39 0 0 Left 0
SYMATTR InstName V4
SYMATTR Value PULSE(-1.6 1.6 1m 1u 1u 2m 7m)
SYMBOL voltage 64 544 R0
WINDOW 123 0 0 Left 0
WINDOW 39 0 0 Left 0
SYMATTR InstName V5
SYMATTR Value PULSE(-1.6 1.6 4m 1u 1u 2m 7m)
TEXT 32 -8 Left 2 !.include "PK35_minimum_tt.lib"\n.param mismatch=1 mos_sigma_global=1
TEXT -322 712 Left 2 !.tran 0 28m 0 1u
