Version 4
SHEET 1 880 680
WIRE 208 -80 208 -144
WIRE 272 -80 208 -80
WIRE 208 -32 208 -80
WIRE 144 16 128 16
WIRE 272 16 272 -80
WIRE 272 16 208 16
WIRE 128 112 128 16
WIRE 128 112 -16 112
WIRE 208 112 208 64
WIRE 416 112 208 112
WIRE 208 144 208 112
WIRE 128 192 128 112
WIRE 144 192 128 192
WIRE 288 192 208 192
WIRE 208 320 208 240
WIRE 288 320 288 192
WIRE 288 320 208 320
WIRE 208 384 208 320
WIRE 0 0 0 0
FLAG -16 112 A
IOPIN -16 112 In
FLAG 208 -144 DVDD
IOPIN 208 -144 BiDir
FLAG 208 384 DVSS
IOPIN 208 384 BiDir
FLAG 416 112 Y
IOPIN 416 112 Out
SYMBOL OR1LIB\\PMOS 144 16 R0
WINDOW 39 24 52 Left 2
WINDOW 3 24 80 Left 2
SYMATTR InstName U1
SYMATTR Value2 l=1u w=4u m=1
SYMBOL OR1LIB\\NMOS 144 192 R0
WINDOW 3 56 60 Left 2
WINDOW 38 56 88 Left 2
SYMATTR InstName U2
SYMATTR Value2 l=1u w=1u m=1
