Version 4
SHEET 1 1012 860
WIRE -560 -464 -560 -560
WIRE -624 -416 -688 -416
WIRE -608 -416 -624 -416
WIRE -464 -416 -512 -416
WIRE -48 -416 -48 -464
WIRE 64 -416 64 -464
WIRE -160 -400 -160 -528
WIRE -80 -400 -160 -400
WIRE 32 -400 -80 -400
WIRE 128 -400 32 -400
WIRE 256 -400 128 -400
WIRE 288 -400 256 -400
WIRE 368 -400 288 -400
WIRE -624 -384 -624 -416
WIRE -496 -384 -624 -384
WIRE 112 -384 -80 -384
WIRE 240 -384 112 -384
WIRE 112 -368 112 -384
WIRE -560 -352 -560 -464
WIRE -80 -352 -80 -384
WIRE 0 -352 0 -368
WIRE 32 -352 0 -352
WIRE 176 -352 32 -352
WIRE 240 -352 240 -384
WIRE 400 -352 336 -352
WIRE 96 -336 -16 -336
WIRE 240 -336 96 -336
WIRE -624 -320 -688 -320
WIRE -496 -320 -624 -320
WIRE 176 -320 176 -352
WIRE 400 -320 400 -352
WIRE 400 -320 176 -320
WIRE -624 -304 -624 -320
WIRE -608 -304 -624 -304
WIRE -464 -304 -512 -304
WIRE 240 -304 240 -336
WIRE 304 -304 240 -304
WIRE -48 -288 -48 -320
WIRE -48 -288 -80 -288
WIRE 64 -288 64 -320
WIRE 64 -288 -48 -288
WIRE 400 -288 400 -320
WIRE -576 -256 -576 -368
WIRE -80 -256 -80 -288
WIRE -160 -240 -160 -400
WIRE -112 -240 -160 -240
WIRE 368 -224 368 -400
WIRE -32 -208 -32 -224
WIRE -576 -192 -576 -256
WIRE -112 -192 -128 -192
WIRE 240 -192 240 -304
WIRE 496 -192 240 -192
WIRE -48 -176 -224 -176
WIRE 384 -160 320 -160
WIRE 576 -144 480 -144
WIRE 16 -128 16 -144
WIRE 128 -128 128 -400
WIRE 128 -128 64 -128
WIRE 256 -128 256 -400
WIRE -16 -96 -272 -96
WIRE 144 -96 80 -96
WIRE 144 -64 144 -96
WIRE 176 -64 144 -64
WIRE -224 -48 -224 -176
WIRE 0 -48 0 -64
WIRE 0 -48 -224 -48
WIRE 400 -48 400 -112
WIRE 400 -48 336 -48
WIRE 480 -48 400 -48
WIRE 32 -32 32 -48
WIRE 176 -32 160 -32
WIRE -208 -16 -208 -32
WIRE -160 -16 -160 -240
WIRE 160 0 160 -32
WIRE 192 0 160 0
WIRE -272 16 -272 -96
WIRE -240 16 -272 16
WIRE -80 16 -80 -160
WIRE -80 16 -144 16
WIRE 240 16 240 -192
WIRE 256 32 256 -128
WIRE -224 48 -224 -48
WIRE -192 80 -192 64
WIRE -80 96 -80 16
WIRE 160 96 160 0
WIRE 176 96 160 96
WIRE 384 112 336 112
WIRE 480 112 384 112
WIRE 176 128 0 128
WIRE 160 160 160 96
WIRE 192 160 160 160
WIRE 240 176 240 16
WIRE -80 224 -80 160
WIRE 0 224 0 128
WIRE 0 224 -80 224
WIRE 48 256 48 240
WIRE 128 256 128 -128
WIRE 128 256 96 256
WIRE 0 288 0 224
WIRE 16 288 0 288
WIRE 160 288 160 160
WIRE 160 288 112 288
WIRE -80 304 -80 224
WIRE 64 352 64 336
WIRE -208 432 -208 416
WIRE -160 432 -160 -16
WIRE 32 448 32 320
WIRE 240 448 240 176
WIRE 240 448 32 448
WIRE -272 464 -272 16
WIRE -272 464 -576 464
WIRE -240 464 -272 464
WIRE -80 464 -80 368
WIRE -80 464 -144 464
WIRE -224 496 -224 48
WIRE -192 528 -192 512
WIRE -80 528 -80 464
WIRE -160 544 -160 432
WIRE -112 544 -160 544
WIRE -32 576 -32 560
WIRE -112 592 -128 592
WIRE -80 672 -80 624
WIRE 384 672 384 112
WIRE 384 672 -80 672
WIRE -224 688 -224 496
WIRE -48 688 -48 608
WIRE -48 688 -224 688
WIRE 32 688 32 448
WIRE 32 688 -48 688
WIRE -224 720 -224 688
WIRE 160 736 160 288
FLAG 160 736 COM
IOPIN 160 736 BiDir
FLAG -576 464 IN
IOPIN -576 464 In
FLAG -160 -528 AVDD
IOPIN -160 -528 BiDir
FLAG -224 720 AVEE
IOPIN -224 720 BiDir
FLAG -688 -320 R
IOPIN -688 -320 In
FLAG -688 -416 C
IOPIN -688 -416 In
FLAG 480 112 VOUT
IOPIN 480 112 Out
FLAG 480 -48 compare
IOPIN 480 -48 Out
FLAG -48 -464 VREFH
IOPIN -48 -464 In
FLAG 64 -464 VREFL
IOPIN 64 -464 In
FLAG -560 -560 AVDD
FLAG -496 -320 R
FLAG -464 -304 R_X
FLAG -192 80 R_X
FLAG -208 -32 R
FLAG 16 -144 R
FLAG 48 240 R
FLAG -208 416 R
FLAG -192 528 R_X
FLAG 64 352 R_X
FLAG 32 -32 R_X
FLAG -576 -192 AVEE
FLAG -496 -384 C
FLAG -464 -416 C_X
FLAG -128 -192 C
FLAG -128 592 C
FLAG -32 -224 C_X
FLAG -32 560 C_X
FLAG 320 -160 R
FLAG 576 -144 R_X
SYMBOL comp_medium 240 112 R0
WINDOW 0 53 41 Bottom 2
SYMATTR InstName X1
SYMBOL t_gate 64 288 R0
WINDOW 0 0 0 Left 2
SYMATTR InstName XR2
SYMBOL t_gate -192 464 R0
WINDOW 0 0 0 Left 2
SYMATTR InstName XR3
SYMBOL t_gate -80 576 R270
WINDOW 0 0 0 Left 2
SYMATTR InstName XC2
SYMBOL t_gate -192 16 R0
WINDOW 0 0 0 Left 2
SYMATTR InstName XR4
SYMBOL t_gate -80 -208 R270
WINDOW 0 0 0 Left 2
SYMATTR InstName XC1
SYMBOL inv_ph -576 -416 R0
SYMATTR InstName X7
SYMBOL inv_ph -576 -304 R0
SYMATTR InstName X8
SYMBOL comp_medium 240 -48 R0
WINDOW 0 66 0 Bottom 2
SYMATTR InstName X9
SYMBOL t_gate -48 -368 R270
SYMATTR InstName X10
SYMBOL t_gate 64 -368 R270
SYMATTR InstName X11
SYMBOL inv_ph 304 -352 M0
SYMATTR InstName X12
SYMBOL t_gate 32 -96 R0
WINDOW 0 0 0 Left 2
SYMATTR InstName XR1
SYMBOL inv_lat 432 -192 R270
SYMATTR InstName X2
SYMBOL cap -96 96 R0
WINDOW 39 24 36 Left 2
SYMATTR InstName C1
SYMATTR Value ""
SYMATTR Prefix X
SYMATTR SpiceModel CPIP
SYMATTR SpiceLine w=10u l=10u
SYMBOL cap -96 304 R0
WINDOW 39 24 36 Left 2
SYMATTR InstName C2
SYMATTR Value ""
SYMATTR Prefix X
SYMATTR SpiceModel CPIP
SYMATTR SpiceLine w=10u l=10u
