Version 4
SHEET 1 1272 1100
WIRE 224 -16 -336 -16
WIRE 224 64 224 -16
WIRE -336 128 -336 -16
WIRE 144 128 -128 128
WIRE 400 144 304 144
WIRE 448 144 400 144
WIRE 464 144 448 144
WIRE 96 160 -16 160
WIRE 144 160 96 160
WIRE -16 192 -16 160
WIRE 96 192 96 160
WIRE 160 192 96 192
WIRE 400 240 400 144
WIRE 208 288 208 208
WIRE -336 400 -336 208
WIRE -128 400 -128 208
WIRE -128 400 -336 400
WIRE -16 400 -16 272
WIRE -16 400 -128 400
WIRE 96 400 -16 400
WIRE 208 400 208 368
WIRE 208 400 96 400
WIRE 400 400 400 304
WIRE 400 400 208 400
WIRE 96 432 96 400
FLAG 96 432 0
FLAG 448 144 vout
SYMBOL comp_medium 208 144 R0
SYMATTR InstName X1
SYMBOL voltage -128 112 R0
WINDOW 123 24 124 Left 2
WINDOW 39 0 0 Left 2
SYMATTR Value2 AC 1 0
SYMATTR InstName V1
SYMATTR Value SINE(0 1.6v 100k)
SYMBOL voltage -16 176 R0
WINDOW 123 0 0 Left 2
WINDOW 39 0 0 Left 2
SYMATTR InstName V2
SYMATTR Value 0v
SYMBOL voltage 208 272 R0
WINDOW 123 0 0 Left 2
WINDOW 39 0 0 Left 2
SYMATTR InstName V3
SYMATTR Value -1.6v
SYMBOL voltage -336 112 R0
WINDOW 123 0 0 Left 2
WINDOW 39 0 0 Left 2
SYMATTR InstName V4
SYMATTR Value 1.6v
SYMBOL cap 384 240 R0
SYMATTR InstName C1
SYMATTR Value 10p
TEXT -368 456 Left 2 !.ac lin 10000 1 100Meg
TEXT -776 -80 Left 2 !.include "BSIM3V3N.mod"\n.include "BSIM3V3P.mod"\n.param mismatch=1 mos_sigma_global=1
TEXT -920 664 Left 2 !*.param          pm_p1=1                         pm_n1=3                         pl_b1=20u                       pm_p2=27                        pw_b2=4.5u\n*.param         pm_p1=1                         pm_n1=6                         pl_b1=40u                       pm_p2=36                        pw_b2=6u\n*.param         pm_p1=1                         pm_n1=7                         pl_b1=80u                       pm_p2=54                        pw_b2=9u\n*.param         pm_p1=1                         pm_n1=15                        pl_b1=160u                      pm_p2=108                       pw_b2=18u\n*.param         pm_p1=2                         pm_n1=3                         pl_b1=40u                       pm_p2=54                        pw_b2=18u\n*.param         pm_p1=2                         pm_n1=6                         pl_b1=20u                       pm_p2=108                       pw_b2=9u\n.param         pm_p1=2                         pm_n1=7                         pl_b1=160u                      pm_p2=27                        pw_b2=6u\n*.param         pm_p1=2                         pm_n1=15                        pl_b1=80u                       pm_p2=36                        pw_b2=4.5u\n*.param         pm_p1=3                         pm_n1=3                         pl_b1=80u                       pm_p2=108                       pw_b2=6u\n*.param         pm_p1=3                         pm_n1=6                         pl_b1=160u                      pm_p2=54                        pw_b2=4.5u\n*.param         pm_p1=3                         pm_n1=7                         pl_b1=20u                       pm_p2=36                        pw_b2=18u\n*.param         pm_p1=3                         pm_n1=15                        pl_b1=40u                       pm_p2=27                        pw_b2=9u\n*.param         pm_p1=6                         pm_n1=3                         pl_b1=160u                      pm_p2=36                        pw_b2=9u\n*.param         pm_p1=6                         pm_n1=6                         pl_b1=80u                       pm_p2=27                        pw_b2=18u\n*.param         pm_p1=6                         pm_n1=7                         pl_b1=40u                       pm_p2=108                       pw_b2=4.5u\n*.param         pm_p1=6                         pm_n1=15                        pl_b1=20u                       pm_p2=54                        pw_b2=6u
TEXT -2280 256 Left 2 !*.param          pm_p1=2                         pm_n1=6                         pl_b1=40u                       pm_p2=36                        pw_b2=6u
