Version 4
SHEET 1 880 680
WIRE 192 -16 -416 -16
WIRE 144 96 144 0
WIRE 192 96 192 -16
WIRE 96 112 -176 112
WIRE 96 144 -96 144
WIRE 368 160 256 160
WIRE 400 160 368 160
WIRE 96 176 -16 176
WIRE 96 208 64 208
WIRE -416 272 -416 -16
WIRE -176 272 -176 112
WIRE -96 272 -96 144
WIRE -16 272 -16 176
WIRE 64 272 64 208
WIRE 160 384 160 224
WIRE -416 480 -416 352
WIRE -176 480 -176 352
WIRE -176 480 -416 480
WIRE -96 480 -96 352
WIRE -96 480 -176 480
WIRE -16 480 -16 352
WIRE -16 480 -96 480
WIRE 64 480 64 352
WIRE 64 480 -16 480
WIRE 160 480 160 464
WIRE 160 480 64 480
WIRE 160 512 160 480
FLAG 160 512 0
FLAG 368 160 vout
SYMBOL pipe_line_base 176 160 R0
SYMATTR InstName X1
SYMBOL voltage 160 368 R0
WINDOW 123 0 0 Left 0
WINDOW 39 0 0 Left 0
SYMATTR InstName V1
SYMATTR Value -1.6v
SYMBOL voltage 64 256 R0
WINDOW 123 0 0 Left 0
WINDOW 39 0 0 Left 0
SYMATTR InstName V2
SYMATTR Value 0v
SYMBOL voltage -16 256 R0
WINDOW 123 0 0 Left 0
WINDOW 39 0 0 Left 0
SYMATTR InstName V3
SYMATTR Value PWL(0 -1.6v 300m 1.6v)
SYMBOL voltage -96 256 R0
WINDOW 3 -53 158 Left 2
WINDOW 123 0 0 Left 0
WINDOW 39 0 0 Left 0
SYMATTR InstName V4
SYMATTR Value PULSE(-1.6v 1.6v 3m 1u 1u 2m 6m)
SYMBOL voltage -176 256 R0
WINDOW 3 -48 131 Left 2
WINDOW 123 0 0 Left 0
WINDOW 39 0 0 Left 0
SYMATTR InstName V5
SYMATTR Value PULSE(-1.6 1.6 0 1u 1u 2m 6m)
SYMBOL voltage -416 256 R0
WINDOW 123 0 0 Left 0
WINDOW 39 0 0 Left 0
SYMATTR InstName V7
SYMATTR Value 1.6v
TEXT -450 536 Left 2 !.tran 0 300m 0 10u
TEXT 304 16 Left 2 !.include "PK35_minimum_tt.lib"\n.param mismatch=1 mos_sigma_global=1
