Version 4
SHEET 1 4860 5172
WIRE 800 -592 768 -592
WIRE 832 -592 800 -592
WIRE 1088 -592 832 -592
WIRE 1120 -592 1088 -592
WIRE 832 -544 832 -592
WIRE 1088 -544 1088 -592
WIRE 944 -528 880 -528
WIRE 960 -528 944 -528
WIRE 1040 -528 960 -528
WIRE 800 -496 800 -592
WIRE 832 -496 800 -496
WIRE 1120 -496 1120 -592
WIRE 1120 -496 1088 -496
WIRE 832 -416 832 -448
WIRE 944 -416 944 -528
WIRE 944 -416 832 -416
WIRE 1088 -368 1088 -448
WIRE 624 -336 560 -336
WIRE 1088 -320 1088 -368
WIRE 1136 -320 1088 -320
WIRE 832 -304 832 -416
WIRE 80 -272 -16 -272
WIRE 624 -272 624 -336
WIRE 544 -256 160 -256
WIRE 864 -256 832 -256
WIRE 80 -224 80 -272
WIRE 784 -224 720 -224
WIRE 160 -192 160 -256
WIRE 160 -192 96 -192
WIRE 176 -192 160 -192
WIRE 544 -192 416 -192
WIRE 544 -160 496 -160
WIRE 416 -144 416 -192
WIRE 832 -144 832 -208
WIRE 832 -144 416 -144
WIRE 928 -144 832 -144
WIRE 80 -128 80 -160
WIRE 80 -128 -16 -128
WIRE 624 -112 624 -176
WIRE 624 -112 560 -112
WIRE 832 -112 832 -144
WIRE 1088 -80 1088 -320
WIRE 832 64 832 -32
WIRE 832 64 784 64
WIRE 864 64 864 -256
WIRE 864 64 832 64
WIRE 896 64 864 64
WIRE 1088 64 1088 0
WIRE 1088 64 896 64
WIRE 896 96 896 64
FLAG 768 -592 vdda
IOPIN 768 -592 In
FLAG 784 64 vssa
IOPIN 784 64 In
FLAG 960 -528 Vbias1
FLAG 896 96 0
FLAG 560 -336 VDDA
FLAG 560 -112 VSSA
FLAG 496 -160 VDDA
FLAG 1088 -368 IREF
FLAG 176 -192 vref
IOPIN 176 -192 Out
FLAG 928 -144 R_REF
IOPIN 928 -144 Out
FLAG 1136 -320 IREF
IOPIN 1136 -320 Out
FLAG -16 -272 VDDA
FLAG -16 -128 VSSA
SYMBOL MPL 848 -496 R180
WINDOW 39 78 -5 Left 2
SYMATTR SpiceLine l=5u w=30u pd=w+l+l ps=pd ad=w*l as=ad m=6
SYMATTR InstName U6
SYMBOL MPL 1072 -496 M180
SYMATTR SpiceLine l=5u w=30u pd=w+l+l ps=pd ad=w*l as=ad m=6
SYMATTR InstName U4
SYMBOL OPAMP_PLF 576 -224 R0
SYMATTR InstName X2
SYMBOL MNL 816 -256 R0
SYMATTR InstName M6
SYMATTR SpiceLine l=0.4u w=3.8u pd=w+l+l ps=pd ad=w*l as=ad m=1
SYMBOL BGR_5V 80 -192 R0
SYMATTR InstName X1
TEXT 808 -784 Left 2 ;vvdda vdda 0 dc {vda}\nvvssa vssa 0 dc 0\n.param vda=3
TEXT 1072 -632 Left 2 ;.dc vvdda 0 4 0.001
TEXT 800 -816 Left 2 ;.step temp list -40 -20 0 25 40 80 100 120
TEXT 1072 -664 Left 2 ;.op
TEXT 800 -664 Left 2 ;.inc PK35_all_tt.lib
TEXT 800 -688 Left 2 ;.inc merge.lib
TEXT 1088 -704 Left 2 ;.tran 500ms
TEXT 832 -72 Left 2 ;R
TEXT 1080 -32 Left 2 ;R
