Version 4
SHEET 1 4860 5172
WIRE 1328 -544 960 -544
WIRE 960 -512 960 -544
WIRE 1040 -512 960 -512
WIRE 1328 -496 1328 -544
WIRE 1552 -480 1344 -480
WIRE 1600 -480 1552 -480
WIRE 1408 -448 1344 -448
WIRE 960 -432 960 -512
WIRE 1456 -416 1344 -416
WIRE 1408 -400 1408 -448
WIRE 1552 -400 1552 -480
WIRE 960 -304 960 -352
WIRE 1328 -304 1328 -384
WIRE 1328 -304 960 -304
WIRE 960 -288 960 -304
WIRE 1328 -272 1328 -304
WIRE 1408 -272 1408 -320
WIRE 1408 -272 1328 -272
WIRE 1552 -272 1552 -320
WIRE 1552 -272 1408 -272
FLAG 960 -288 0
FLAG 1040 -512 VDDA
FLAG 1456 -416 vref
IOPIN 1456 -416 Out
FLAG 1600 -480 IREF
IOPIN 1600 -480 Out
SYMBOL res 1536 -416 R0
SYMATTR InstName R2
SYMATTR Value 100
SYMBOL res 1392 -416 R0
SYMATTR InstName R1
SYMATTR Value 1000
SYMBOL voltage 960 -448 R0
WINDOW 123 0 0 Left 0
WINDOW 39 0 0 Left 0
SYMATTR InstName V1
SYMATTR Value 5
SYMBOL CURRENT 1328 -464 R0
SYMATTR InstName X3
TEXT 1304 -760 Left 2 ;vvdda vdda 0 dc {vda}\nvvssa vssa 0 dc 0\n.param vda=3
TEXT 1072 -632 Left 2 ;.dc vvdda 0 4 0.001
TEXT 1312 -672 Left 2 !.step temp list -40 -20 0 25 40 80 100 120
TEXT 1072 -600 Left 2 !.op
TEXT 1072 -664 Left 2 !.inc PK35_all_tt.lib
TEXT 1088 -704 Left 2 !.tran 500ms
TEXT 1376 -248 Left 2 ;I=1.2/R
