Version 4
SHEET 1 5948 5172
WIRE 784 2160 656 2160
WIRE 1088 2160 784 2160
WIRE 1216 2160 1088 2160
WIRE 1616 2160 1216 2160
WIRE 1216 2304 1216 2160
WIRE 1248 2304 1216 2304
WIRE 1616 2304 1616 2160
WIRE 1648 2304 1616 2304
WIRE 1216 2368 1216 2304
WIRE 1616 2368 1616 2304
WIRE 1168 2384 1152 2384
WIRE 1568 2384 1552 2384
WIRE 784 2400 784 2160
WIRE 1248 2416 1248 2304
WIRE 1248 2416 1216 2416
WIRE 1648 2416 1648 2304
WIRE 1648 2416 1616 2416
WIRE 1152 2448 1152 2384
WIRE 1152 2448 992 2448
WIRE 1216 2480 1216 2464
WIRE 1280 2480 1216 2480
WIRE 1616 2480 1616 2464
WIRE 2000 2480 1616 2480
WIRE 1216 2528 1216 2480
WIRE 1280 2528 1280 2480
WIRE 1392 2528 1280 2528
WIRE 1552 2528 1552 2384
WIRE 1552 2528 1392 2528
WIRE 1616 2528 1616 2480
WIRE 2224 2528 2128 2528
WIRE 2000 2560 2000 2480
WIRE 2224 2560 2000 2560
WIRE 784 2576 784 2512
WIRE 992 2576 992 2448
WIRE 992 2576 784 2576
WIRE 1248 2576 1216 2576
WIRE 1648 2576 1616 2576
WIRE 2416 2576 2336 2576
WIRE 2528 2576 2416 2576
WIRE 2224 2592 2176 2592
WIRE 1152 2608 1152 2448
WIRE 1168 2608 1152 2608
WIRE 1552 2608 1552 2528
WIRE 1568 2608 1552 2608
WIRE 784 2624 784 2576
WIRE 864 2624 784 2624
WIRE 2224 2624 2112 2624
WIRE 784 2656 784 2624
WIRE 1216 2688 1216 2624
WIRE 1248 2688 1248 2576
WIRE 1248 2688 1216 2688
WIRE 1616 2688 1616 2624
WIRE 1648 2688 1648 2576
WIRE 1648 2688 1616 2688
WIRE 864 2704 864 2624
WIRE 864 2704 848 2704
WIRE 2416 2704 2416 2576
WIRE 2416 2704 2144 2704
WIRE 2176 2752 2176 2592
WIRE 2432 2752 2176 2752
WIRE 784 2864 784 2752
WIRE 784 2864 656 2864
WIRE 1216 2864 1216 2688
WIRE 1216 2864 784 2864
WIRE 1616 2864 1616 2688
WIRE 1616 2864 1216 2864
WIRE 2128 2864 2128 2528
WIRE 2256 2864 2128 2864
WIRE 2144 2896 2144 2704
WIRE 2256 2896 2144 2896
WIRE 1904 2912 1616 2912
WIRE 2432 2912 2432 2752
WIRE 2432 2912 2368 2912
WIRE 2256 2928 2096 2928
WIRE 1904 2960 1696 2960
WIRE 2096 2960 2096 2928
WIRE 2096 2960 2016 2960
WIRE 2112 2960 2112 2624
WIRE 2256 2960 2112 2960
WIRE 1088 2976 1088 2160
WIRE 1248 2976 1088 2976
WIRE 1616 2976 1616 2912
WIRE 1616 2976 1248 2976
WIRE 1904 3008 1808 3008
WIRE 1616 3120 1616 2976
WIRE 1648 3120 1616 3120
WIRE 1248 3136 1248 2976
WIRE 1280 3136 1248 3136
WIRE 1616 3184 1616 3120
WIRE 1248 3200 1248 3136
WIRE 1568 3200 1552 3200
WIRE 992 3216 992 2576
WIRE 1184 3216 992 3216
WIRE 1200 3216 1184 3216
WIRE 1648 3232 1648 3120
WIRE 1648 3232 1616 3232
WIRE 1280 3248 1280 3136
WIRE 1280 3248 1248 3248
WIRE 1616 3296 1616 3280
WIRE 1696 3296 1696 2960
WIRE 1696 3296 1616 3296
WIRE 1712 3296 1696 3296
WIRE 1248 3312 1248 3296
WIRE 1552 3312 1552 3200
WIRE 1552 3312 1248 3312
WIRE 1616 3344 1616 3296
WIRE 1248 3360 1248 3312
WIRE 1648 3392 1616 3392
WIRE 1280 3408 1248 3408
WIRE 1552 3424 1552 3312
WIRE 1568 3424 1552 3424
WIRE 1184 3440 1184 3216
WIRE 1200 3440 1184 3440
WIRE 1616 3504 1616 3440
WIRE 1648 3504 1648 3392
WIRE 1648 3504 1616 3504
WIRE 1248 3520 1248 3456
WIRE 1280 3520 1280 3408
WIRE 1280 3520 1248 3520
WIRE 784 3680 784 2864
WIRE 1248 3680 1248 3520
WIRE 1248 3680 784 3680
WIRE 1616 3680 1616 3504
WIRE 1616 3680 1248 3680
WIRE 784 3728 784 3680
FLAG 656 2864 VSSA
FLAG 656 2160 VDDA
FLAG 2528 2576 POR
IOPIN 2528 2576 Out
FLAG 784 3728 0
FLAG 1808 3008 VSSA
FLAG 2128 2528 VDDA
FLAG 2112 2624 VSSA
FLAG 1392 2528 POR1
SYMBOL MNL 1200 2576 R0
SYMATTR InstName M11
SYMATTR SpiceLine l=1.2u w=20u pd=w+l+l ps=pd ad=w*l as=ad m=1
SYMBOL MPL 1200 2416 M180
SYMATTR InstName M12
SYMATTR SpiceLine l=2.0u w=5u pd=w+l+l ps=pd ad=w*l as=ad m=1
SYMBOL MNL 1600 2576 R0
SYMATTR InstName M13
SYMATTR SpiceLine l=1.2u w=10u pd=w+l+l ps=pd ad=w*l as=ad m=1
SYMBOL MPL 1600 2416 M180
SYMATTR InstName M14
SYMATTR SpiceLine l=2.0u w=5u pd=w+l+l ps=pd ad=w*l as=ad m=1
SYMBOL S_NOR2 2256 2576 R0
SYMATTR InstName X1
SYMBOL S_NOR2 2288 2912 R0
SYMATTR InstName X2
SYMBOL S_INV1 1936 2960 R0
SYMATTR InstName X3
SYMBOL RPH 784 2448 R0
SYMATTR InstName U1
SYMATTR SpiceLine l=100u w=4u m=4
SYMBOL MNL 1600 3392 R0
SYMATTR InstName M1
SYMATTR SpiceLine l=1.2u w=10u pd=w+l+l ps=pd ad=w*l as=ad m=1
SYMBOL MPL 1600 3232 M180
SYMATTR InstName M2
SYMATTR SpiceLine l=2.0u w=5u pd=w+l+l ps=pd ad=w*l as=ad m=1
SYMBOL MNL 1232 3408 R0
SYMATTR InstName M3
SYMATTR SpiceLine l=1.2u w=20u pd=w+l+l ps=pd ad=w*l as=ad m=1
SYMBOL MPL 1232 3248 M180
SYMATTR InstName M4
SYMATTR SpiceLine l=2.0u w=4.5u pd=w+l+l ps=pd ad=w*l as=ad m=1
SYMBOL NPN 816 2704 M0
SYMATTR InstName Q1
TEXT 1104 1872 Left 2 ;.lib tsmc035sige.lib
TEXT 1600 1912 Left 2 ;vvdda vdda 0 dc {vda}\nvvssa vssa 0 dc 0\n.param vda=5
TEXT 1472 1832 Left 2 ;*.dc vvdda 0 4 0.001
TEXT 1072 1976 Left 2 ;*.step temp list -40 -20 0 25 40 80 100 120
TEXT 776 2032 Left 2 ;.inc PK35_all_tt.lib
TEXT 776 2008 Left 2 ;.inc merge.lib
TEXT 1064 1936 Left 2 ;.tran 300ms
