Version 4
SHEET 1 5948 5172
WIRE 1600 2096 1088 2096
WIRE 1744 2096 1664 2096
WIRE 1600 2160 1344 2160
WIRE 1088 2208 1088 2176
WIRE 1344 2208 1344 2160
WIRE 1344 2208 1088 2208
WIRE 1088 2256 1088 2208
FLAG 1088 2256 0
FLAG 1744 2096 POR
IOPIN 1744 2096 Out
SYMBOL voltage 1088 2080 R0
WINDOW 123 0 0 Left 0
WINDOW 39 0 0 Left 0
SYMATTR InstName V5
SYMATTR Value PWL(0 5 100m 0 200m 5)
SYMBOL PoweOnReset 1632 2128 R0
SYMATTR InstName X4
TEXT 1104 1872 Left 2 ;.lib tsmc035sige.lib
TEXT 1600 1912 Left 2 ;vvdda vdda 0 dc {vda}\nvvssa vssa 0 dc 0\n.param vda=5
TEXT 1472 1832 Left 2 !*.dc vvdda 0 4 0.001
TEXT 1072 1976 Left 2 !*.step temp list -40 -20 0 25 40 80 100 120
TEXT 776 2032 Left 2 !.inc PK35_all_tt.lib
TEXT 776 2008 Left 2 ;.inc merge.lib
TEXT 1064 1936 Left 2 !.tran 300ms
