Version 4
SHEET 1 880 680
WIRE -208 -272 -336 -272
WIRE -112 -272 -208 -272
WIRE 96 -272 96 -352
WIRE 96 -272 -112 -272
WIRE 208 -272 96 -272
WIRE 528 -272 208 -272
WIRE 160 -144 -304 -144
WIRE 208 -144 208 -272
WIRE 128 -112 32 -112
WIRE 336 -112 224 -112
WIRE -208 -64 -208 -272
WIRE -304 -16 -304 -144
WIRE -304 -16 -432 -16
WIRE -256 -16 -304 -16
WIRE 176 -16 176 -64
WIRE 176 -16 -160 -16
WIRE -160 112 -400 112
WIRE 480 112 -160 112
WIRE 208 128 208 -144
WIRE 208 128 176 128
WIRE -160 144 -160 112
WIRE -112 144 -112 -272
WIRE 480 144 480 112
WIRE 528 144 528 -272
WIRE -192 176 -432 176
WIRE 32 176 32 -112
WIRE 32 176 -96 176
WIRE 48 176 32 176
WIRE 128 176 112 176
WIRE 336 176 336 -112
WIRE 336 176 224 176
WIRE 448 176 336 176
WIRE 640 176 544 176
WIRE 144 224 144 -80
WIRE 160 224 144 224
WIRE -336 272 -336 -272
WIRE -400 320 -400 112
WIRE -400 320 -432 320
WIRE -384 320 -400 320
WIRE -144 320 -144 224
WIRE -144 320 -288 320
WIRE 496 320 496 224
WIRE 496 320 -144 320
WIRE -352 432 -352 368
WIRE -224 432 -224 32
WIRE -224 432 -352 432
WIRE -176 432 -176 208
WIRE -176 432 -224 432
WIRE 96 432 -176 432
WIRE 144 432 144 224
WIRE 144 432 96 432
WIRE 464 432 464 208
WIRE 464 432 144 432
WIRE 96 512 96 432
FLAG -432 -16 R
IOPIN -432 -16 In
FLAG -432 320 C
IOPIN -432 320 In
FLAG -432 176 COMP_IN
IOPIN -432 176 In
FLAG 640 176 COMP_OUT
IOPIN 640 176 Out
FLAG 96 -352 DVDD
IOPIN 96 -352 BiDir
FLAG 96 512 DVSS
IOPIN 96 512 BiDir
SYMBOL inv_ph 160 176 R0
SYMATTR InstName X1
SYMBOL t_gate 176 -112 R0
SYMATTR InstName X2
SYMBOL t_gate 496 176 R0
SYMATTR InstName X3
SYMBOL t_gate -144 176 R0
SYMATTR InstName X4
SYMBOL inv_ph -224 -16 R0
SYMATTR InstName X5
SYMBOL inv_ph -352 320 R0
SYMATTR InstName X6
SYMBOL cap 112 160 R90
WINDOW 0 0 32 VBottom 2
WINDOW 3 32 32 VTop 2
SYMATTR InstName C1
SYMATTR Value 100p
