Version 4
SHEET 1 880 856
WIRE 208 0 -32 0
WIRE 240 0 240 -64
WIRE 240 0 208 0
WIRE 400 0 240 0
WIRE 416 0 400 0
WIRE 400 144 400 0
WIRE -32 160 -32 0
WIRE -112 192 -288 192
WIRE 48 192 -16 192
WIRE 352 192 48 192
WIRE 544 192 448 192
WIRE 720 192 544 192
WIRE 416 464 416 0
WIRE -64 480 -64 240
WIRE -64 480 -288 480
WIRE 160 480 -64 480
WIRE 208 480 208 0
WIRE 48 512 48 192
WIRE 128 512 48 512
WIRE 368 512 224 512
WIRE 544 512 544 192
WIRE 544 512 464 512
WIRE -80 560 -80 160
WIRE -80 560 -288 560
WIRE 176 560 -80 560
WIRE -96 672 -96 224
WIRE 144 672 144 544
WIRE 144 672 -96 672
WIRE 272 672 144 672
WIRE 384 672 384 240
WIRE 384 672 272 672
WIRE 432 672 432 560
WIRE 432 672 384 672
WIRE 272 736 272 672
FLAG -288 560 LAT
IOPIN -288 560 In
FLAG -288 480 LAT_X
IOPIN -288 480 In
FLAG -288 192 D
IOPIN -288 192 In
FLAG 720 192 Q_X
IOPIN 720 192 Out
FLAG 240 -64 DVDD
IOPIN 240 -64 BiDir
FLAG 272 736 DVSS
IOPIN 272 736 BiDir
SYMBOL t_gate 176 512 R0
SYMATTR InstName X1
SYMBOL t_gate -64 192 R0
SYMATTR InstName X2
SYMBOL inv_ph 384 192 R0
SYMATTR InstName X3
SYMBOL inv_ph 432 512 M0
SYMATTR InstName X4
