Version 4
SHEET 1 1268 5980
TEXT -24 56 Left 2 !.SUBCKT MND D G S B L=1u W=1u AD=1p AS=1p PD=1u PS=1u NRD=248.48485m NRS=248.48485m\nM1 D G S B MND l='L' w='W' m='M' ad='AD' as='AS' pd='PD' ps='PS' nrd='NRD' nrs='NRS'\n \n.PARAM MND_dtox_StDev = '1.00E-09/3.0'\n*.PARAM mnd_dtox = 'MOS_Sigma_Global*(MND_dtox_StDev)'\n.PARAM MND_dxl_StDev = '4.50e-8/3.0'\n*.PARAM mnd_dxl = 'MOS_Sigma_Global*(MND_dxl_StDev)'\n.PARAM MND_dxw_StDev = '-3.00E-08/3.0'\n*.PARAM mnd_dxw = 'MOS_Sigma_Global*(MND_dxw_StDev)'\n.PARAM MND_dvth0_StDev = '0.100/3.0'\n*.PARAM mnd_dvth0 = 'NMOS_Sigma_Global*(MND_dvth0_StDev)'\n.PARAM MND_du0_StDev_Slow = '9.400E-04/3.0'\n.PARAM MND_du0_StDev_Fast = '-1.63E-04/3.0'\n.PARAM MND_du0_Mean_MC = '0'\n.PARAM MND_du0_Mean_Ctr_MC = '3.885E-04'\n.PARAM MND_du0_StDev_Ctr_MC = '5.515E-04/3'\n.PARAM MND_du0_Sigma = NMOS_Sigma_Global\n*.PARAM MND_du0_StDev_sigma = '((MND_du0_Sigma<0) ? MND_du0_StDev_Fast : MND_du0_StDev_Slow)'\n*.PARAM MND_du0_Sig = '(abs(MND_du0_Sigma)*MND_du0_StDev_sigma)'\n*.PARAM MND_du0_MC = 'MND_du0_Sig'\n*.PARAM MND_du0_MC = 'MND_du0_Mean_Ctr_MC + MND_du0_Sigma*MND_du0_StDev_Ctr_MC'\n*.PARAM mnd_du0 = '((NMOS_MC_Flag>0) ? MND_du0_MC : MND_du0_Sig)'\n \n.MODEL MND NMOS\n+ LEVEL = 49\n+ VERSION = 3.3\n+ TNOM = 27\n+ MOBMOD = 1\n+ CAPMOD = 2\n+ PARAMCHK = 1\n+ NQSMOD = 0\n+ TOX = '1.350E-008 + mnd_dtox'\n+ XJ = 2.5E-007\n+ NCH = 1.6E+017\n+ VTH0 = '-0.4113 + mnd_dvth0'\n+ K1 = 0.5911\n+ K2 = 1E-006\n+ K3 = 10\n+ K3B = 0\n+ W0 = 2.5E-006\n+ NLX = 6.001E-007\n+ DVT0 = 2.682\n+ DVT1 = 0.5082\n+ DVT2 = 0.02202\n+ DVT0W = 0.1323\n+ DVT1W = 1.305E+005\n+ DVT2W = -0.0255\n+ U0 = '0.05543 + mnd_du0'\n+ UA = 1.044E-009\n+ UB = 2.03E-018\n+ UC = -1.07E-011\n+ VSAT = 7E+004\n+ A0 = 0.6189\n+ AGS = 0.1847\n+ B0 = 0\n+ B1 = 0\n+ KETA = -0.02489\n+ A1 = 0\n+ A2 = 1\n+ RDSW = 902\n+ PRWG = 0\n+ PRWB = 0\n+ WR = 1\n+ LINT = 8.182E-009\n+ WINT = 1.5E-007\n+ XL = '0 + mnd_dxl'\n+ XW = '0 + mnd_dxw'\n+ DWG = 0\n+ DWB = 0\n+ VOFF = -0.1822\n+ NFACTOR = 1.19\n+ CIT = 0\n+ CDSC = 0.00024\n+ CDSCD = 0\n+ CDSCB = 2.721E-005\n+ ETA0 = 0.49\n+ ETAB = -0.038\n+ DSUB = 0.56\n+ PCLM = 2\n+ PDIBLC1 = 0.05447\n+ PDIBLC2 = 0.001\n+ PDIBLCB = 0\n+ DROUT = 0.56\n+ PSCBE1 = 5.93E+008\n+ PSCBE2 = 5E-005\n+ PVAG = 0\n+ DELTA = 0.02\n+ ALPHA0 = 2.6E-006\n+ BETA0 = 36\n+ ALPHA1 = 7.1\n+ RSH = 40\n+ HDIF = 8E-007\n+ XPART = 0\n+ VOFFCV = 0\n+ CGDO = 0\n+ CGSO = 0\n+ CGBO = 0\n+ CGSL = 0\n+ CGDL = 0\n+ CKAPPA = 0.6\n+ CF = 0\n+ CLC = 1E-007\n+ CLE = 0.6\n+ DLC = 0\n+ DWC = 0\n+ NOFF = 1\n+ ACDE = 1\n+ MOIN = 15\n+ JS = 2E-007\n+ JSW = 0\n+ IJTH = 0.1\n+ CJ = 0.0005\n+ MJ = 0.5\n+ PB = 1\n+ CJSW = 5E-010\n+ MJSW = 0.33\n+ PBSW = 1\n+ CJSWG = 5E-010\n+ MJSWG = 0.33\n+ PBSWG = 1\n+ UTE = -1.437\n+ KT1 = -0.4007\n+ KT1L = -6E-008\n+ KT2 = -0.06\n+ UA1 = 4.118E-009\n+ UB1 = -7.827E-018\n+ UC1 = -4.014E-011\n+ AT = 2.41E+004\n+ PRT = 1302\n+ WL = -6.2E-014\n+ WLN = 1\n+ WW = -4.843E-014\n+ WWN = 1\n+ WWL = 5E-020\n+ LL = 1.457E-014\n+ LLN = 1\n+ LW = 0\n+ LWN = 1\n+ LWL = 0\n+ NOIMOD = 2\n+ NOIA = 1E+020\n+ NOIB = 5E+004\n+ NOIC = -1.4E-012\n+ EM = 4.1E+007\n+ AF = 1\n+ EF = 1\n+ KF = 0\n+ LINTNOI = 0\n+ TCJ = 0\n+ TCJSW = 0\n+ TCJSWG = 0\n+ TPB = 0\n+ TPBSW = 0\n+ TPBSWG = 0\n+ LVTH0 = -0.07303\n+ WVTH0 = -0.0198\n+ PVTH0 = 0\n+ LK1 = -0.03819\n+ WK1 = 0.025\n+ PK1 = 0\n+ LU0 = 0.00325\n+ WU0 = -0.003\n+ PU0 = 0.01\n+ LUA = -1.299E-009\n+ WUA = 2.076E-010\n+ PUA = 7E-010\n+ LUB = 1.057E-018\n+ WUB = -9.03E-019\n+ PUB = -1.9E-018\n+ LUC = -7.86E-011\n+ WUC = 0\n+ PUC = -7E-011\n+ LA0 = -0.3\n+ WA0 = -0.05\n+ PA0 = 0\n+ LAGS = -0.0428\n+ WAGS = -0.02122\n+ PAGS = 0.341\n+ LKETA = 0\n+ WKETA = 0.00987\n+ PKETA = -0.012\n+ LALPHA0 = 0\n+ WALPHA0 = 0\n+ PALPHA0 = 0\n+ LALPHA1 = 0\n+ WALPHA1 = 0\n+ PALPHA1 = 0\n+ LBETA0 = 0\n+ WBETA0 = 0\n+ PBETA0 = 0\n+ LKT1 = 0.04818\n+ WKT1 = -0.025\n+ PKT1 = 0\n+ LKT2 = 0.00742\n+ WKT2 = -0.015\n+ PKT2 = 0\n+ LUTE = 0.1692\n+ WUTE = -0.009766\n+ PUTE = 0\n+ LUA1 = -2.544E-009\n+ WUA1 = -1.342E-009\n+ PUA1 = 0\n+ LUB1 = 3.432E-018\n+ WUB1 = 2E-018\n+ PUB1 = 0\n+ LUC1 = 0\n+ WUC1 = 0\n+ PUC1 = 0\n+ XTI = 3\n+ PVSAT = 5000\n \n.ENDS MND
