Version 4
SHEET 1 2168 680
WIRE -32 -224 -352 -224
WIRE 288 -224 -32 -224
WIRE 608 -224 288 -224
WIRE 928 -224 608 -224
WIRE 1248 -224 928 -224
WIRE 1568 -224 1248 -224
WIRE 1888 -224 1888 -336
WIRE 1888 -224 1568 -224
WIRE -304 -208 -656 -208
WIRE 16 -208 -304 -208
WIRE 336 -208 16 -208
WIRE 656 -208 336 -208
WIRE 976 -208 656 -208
WIRE 1296 -208 976 -208
WIRE 1616 -208 1296 -208
WIRE 1936 -208 1616 -208
WIRE -320 -192 -656 -192
WIRE 0 -192 -320 -192
WIRE 320 -192 0 -192
WIRE 640 -192 320 -192
WIRE 960 -192 640 -192
WIRE 1280 -192 960 -192
WIRE 1600 -192 1280 -192
WIRE 1920 -192 1600 -192
WIRE -400 -96 -400 -336
WIRE -352 -96 -352 -224
WIRE -320 -96 -320 -192
WIRE -304 -96 -304 -208
WIRE -80 -96 -80 -336
WIRE -32 -96 -32 -224
WIRE 0 -96 0 -192
WIRE 16 -96 16 -208
WIRE 240 -96 240 -336
WIRE 288 -96 288 -224
WIRE 320 -96 320 -192
WIRE 336 -96 336 -208
WIRE 560 -96 560 -336
WIRE 608 -96 608 -224
WIRE 640 -96 640 -192
WIRE 656 -96 656 -208
WIRE 880 -96 880 -336
WIRE 928 -96 928 -224
WIRE 960 -96 960 -192
WIRE 976 -96 976 -208
WIRE 1200 -96 1200 -336
WIRE 1248 -96 1248 -224
WIRE 1280 -96 1280 -192
WIRE 1296 -96 1296 -208
WIRE 1520 -96 1520 -336
WIRE 1568 -96 1568 -224
WIRE 1600 -96 1600 -192
WIRE 1616 -96 1616 -208
WIRE 1840 -96 1840 -336
WIRE 1888 -96 1888 -224
WIRE 1920 -96 1920 -192
WIRE 1936 -96 1936 -208
WIRE -448 -80 -512 -80
WIRE -128 -80 -192 -80
WIRE 192 -80 128 -80
WIRE 512 -80 448 -80
WIRE 832 -80 768 -80
WIRE 1152 -80 1088 -80
WIRE 1472 -80 1408 -80
WIRE 1792 -80 1728 -80
WIRE -448 -48 -480 -48
WIRE -128 -48 -160 -48
WIRE 192 -48 160 -48
WIRE 512 -48 480 -48
WIRE 832 -48 800 -48
WIRE 1152 -48 1120 -48
WIRE 1472 -48 1440 -48
WIRE 1792 -48 1760 -48
WIRE -208 -32 -288 -32
WIRE 112 -32 32 -32
WIRE 432 -32 352 -32
WIRE 752 -32 672 -32
WIRE 1072 -32 992 -32
WIRE 1392 -32 1312 -32
WIRE 1712 -32 1632 -32
WIRE 2032 -32 1952 -32
WIRE -448 -16 -656 -16
WIRE -208 -16 -208 -32
WIRE -128 -16 -208 -16
WIRE 112 -16 112 -32
WIRE 192 -16 112 -16
WIRE 432 -16 432 -32
WIRE 512 -16 432 -16
WIRE 752 -16 752 -32
WIRE 832 -16 752 -16
WIRE 1072 -16 1072 -32
WIRE 1152 -16 1072 -16
WIRE 1392 -16 1392 -32
WIRE 1472 -16 1392 -16
WIRE 1712 -16 1712 -32
WIRE 1792 -16 1712 -16
WIRE -448 16 -544 16
WIRE -128 16 -448 16
WIRE 192 16 -128 16
WIRE 512 16 192 16
WIRE 832 16 512 16
WIRE 1152 16 832 16
WIRE 1472 16 1152 16
WIRE 1792 16 1472 16
WIRE -512 112 -512 -80
WIRE -512 112 -656 112
WIRE -160 112 -160 -48
WIRE -160 112 -512 112
WIRE 128 112 128 -80
WIRE 128 112 -160 112
WIRE 480 112 480 -48
WIRE 480 112 128 112
WIRE 768 112 768 -80
WIRE 768 112 480 112
WIRE 1120 112 1120 -48
WIRE 1120 112 768 112
WIRE 1408 112 1408 -80
WIRE 1408 112 1120 112
WIRE 1760 112 1760 -48
WIRE 1760 112 1408 112
WIRE -480 144 -480 -48
WIRE -480 144 -656 144
WIRE -192 144 -192 -80
WIRE -192 144 -480 144
WIRE 160 144 160 -48
WIRE 160 144 -192 144
WIRE 448 144 448 -80
WIRE 448 144 160 144
WIRE 800 144 800 -48
WIRE 800 144 448 144
WIRE 1088 144 1088 -80
WIRE 1088 144 800 144
WIRE 1440 144 1440 -48
WIRE 1440 144 1088 144
WIRE 1728 144 1728 -80
WIRE 1728 144 1440 144
WIRE -384 240 -384 32
WIRE -64 240 -64 32
WIRE -64 240 -384 240
WIRE 256 240 256 32
WIRE 256 240 -64 240
WIRE 576 240 576 32
WIRE 576 240 256 240
WIRE 720 240 576 240
WIRE 896 240 896 32
WIRE 896 240 720 240
WIRE 1216 240 1216 32
WIRE 1216 240 896 240
WIRE 1536 240 1536 32
WIRE 1536 240 1216 240
WIRE 1856 240 1856 32
WIRE 1856 240 1536 240
WIRE -544 304 -544 16
WIRE 720 304 720 240
FLAG -656 144 PH1
IOPIN -656 144 In
FLAG -656 112 PH2
IOPIN -656 112 In
FLAG -544 304 COM
IOPIN -544 304 BiDir
FLAG 720 304 AVEE
IOPIN 720 304 BiDir
FLAG 1888 -336 AVDD
IOPIN 1888 -336 BiDir
FLAG -400 -336 D7
IOPIN -400 -336 Out
FLAG -80 -336 D6
IOPIN -80 -336 Out
FLAG 240 -336 D5
IOPIN 240 -336 Out
FLAG 560 -336 D4
IOPIN 560 -336 Out
FLAG 880 -336 D3
IOPIN 880 -336 Out
FLAG 1200 -336 D2
IOPIN 1200 -336 Out
FLAG 1520 -336 D1
IOPIN 1520 -336 Out
FLAG 1840 -336 D0
IOPIN 1840 -336 Out
FLAG -656 -16 AIN
IOPIN -656 -16 In
FLAG 2032 -32 VOUT
IOPIN 2032 -32 Out
FLAG -656 -192 VREFH
IOPIN -656 -192 In
FLAG -656 -208 VREFL
IOPIN -656 -208 In
SYMBOL pipe_line_base -368 -32 R0
SYMATTR InstName X1
SYMBOL pipe_line_base -48 -32 R0
SYMATTR InstName X2
SYMBOL pipe_line_base 272 -32 R0
SYMATTR InstName X3
SYMBOL pipe_line_base 592 -32 R0
SYMATTR InstName X4
SYMBOL pipe_line_base 912 -32 R0
SYMATTR InstName X5
SYMBOL pipe_line_base 1232 -32 R0
SYMATTR InstName X6
SYMBOL pipe_line_base 1552 -32 R0
SYMATTR InstName X7
SYMBOL pipe_line_base 1872 -32 R0
SYMATTR InstName X8
