Version 4
SHEET 1 1324 860
WIRE 192 -80 16 -80
WIRE 368 -80 272 -80
WIRE 224 -16 -336 -16
WIRE 224 64 224 -16
WIRE 144 128 64 128
WIRE 368 144 368 -80
WIRE 368 144 304 144
WIRE 448 144 368 144
WIRE 480 144 448 144
WIRE -96 160 -112 160
WIRE 16 160 16 -80
WIRE 16 160 -16 160
WIRE 144 160 16 160
WIRE 64 192 64 128
WIRE 64 192 -16 192
WIRE 160 192 64 192
WIRE -112 256 -112 160
WIRE -336 288 -336 -16
WIRE -16 288 -16 192
WIRE 208 288 208 208
WIRE -336 400 -336 368
WIRE -112 400 -112 336
WIRE -112 400 -336 400
WIRE -16 400 -16 368
WIRE -16 400 -112 400
WIRE 96 400 -16 400
WIRE 208 400 208 368
WIRE 208 400 96 400
WIRE 96 432 96 400
FLAG 96 432 0
FLAG 448 144 vout
SYMBOL comp_medium 208 144 R0
SYMATTR InstName X1
SYMBOL voltage -16 272 R0
WINDOW 123 0 0 Left 2
WINDOW 39 0 0 Left 2
SYMATTR InstName V2
SYMATTR Value 0v
SYMBOL voltage 208 272 R0
WINDOW 123 0 0 Left 2
WINDOW 39 0 0 Left 2
SYMATTR InstName V3
SYMATTR Value -1.6v
SYMBOL voltage -336 272 R0
WINDOW 123 0 0 Left 2
WINDOW 39 0 0 Left 2
SYMATTR InstName V4
SYMATTR Value 1.6v
SYMBOL voltage -112 240 R0
WINDOW 123 0 0 Left 2
WINDOW 39 0 0 Left 2
SYMATTR InstName V1
SYMATTR Value SINE(0 200m 10k)
SYMBOL res 176 -64 R270
WINDOW 0 32 56 VTop 2
WINDOW 3 0 56 VBottom 2
SYMATTR InstName R1
SYMATTR Value 100k
SYMBOL res -112 176 R270
WINDOW 0 32 56 VTop 2
WINDOW 3 0 56 VBottom 2
SYMATTR InstName R2
SYMATTR Value 10k
TEXT -368 456 Left 2 !.tran 0 10mS 0 0.01u
TEXT -504 560 Left 2 !*.param          pm_p1=2                         pm_n1=6                         pl_b1=40u                       pm_p2=36                        pw_b2=2u
TEXT 688 -16 Left 2 !.Model SWSW SW(Ron=10m Roff=100meg Vt=0)
TEXT -312 -192 Left 2 !.include "BSIM3V3N.mod"\n.include "BSIM3V3P.mod"\n.param mismatch=1 mos_sigma_global=1
TEXT -240 528 Left 2 !.param          pm_p1=2                         pm_n1=6                         pl_b1=40u                       pm_p2=36                        pw_b2=6u
