Version 4
SHEET 1 1084 756
WIRE 224 -208 -720 -208
WIRE 208 -176 -640 -176
WIRE 160 -144 -544 -144
WIRE 176 -144 160 -144
WIRE -720 -64 -720 -208
WIRE 176 -64 176 -144
WIRE 208 -64 208 -176
WIRE 224 -64 224 -208
WIRE 352 -32 240 -32
WIRE 352 0 240 0
WIRE -640 32 -640 -176
WIRE 352 32 240 32
WIRE 352 64 240 64
WIRE -64 96 -384 96
WIRE 96 96 -64 96
WIRE 352 96 240 96
WIRE -544 128 -544 -144
WIRE -64 128 -240 128
WIRE 96 128 -64 128
WIRE 352 128 240 128
WIRE -64 160 -160 160
WIRE 96 160 -64 160
WIRE 352 160 240 160
WIRE -384 192 -384 96
WIRE 352 192 240 192
WIRE 352 304 240 304
WIRE -240 320 -240 128
WIRE 112 416 112 320
WIRE 144 416 144 320
WIRE -160 432 -160 160
WIRE 112 432 112 416
WIRE 112 432 48 432
WIRE 144 432 144 416
WIRE 192 432 144 432
WIRE -720 560 -720 16
WIRE -640 560 -640 112
WIRE -640 560 -720 560
WIRE -544 560 -544 208
WIRE -544 560 -640 560
WIRE -384 560 -384 272
WIRE -384 560 -544 560
WIRE -240 560 -240 400
WIRE -240 560 -384 560
WIRE -160 560 -160 512
WIRE -160 560 -240 560
WIRE 48 560 48 512
WIRE 48 560 -160 560
WIRE 128 560 48 560
WIRE 192 560 192 512
WIRE 192 560 128 560
WIRE 128 736 128 560
FLAG 128 736 0
FLAG 352 -32 D0
FLAG 352 0 D1
FLAG 352 32 D2
FLAG 352 64 D3
FLAG 352 96 D4
FLAG 352 128 D5
FLAG 352 160 D6
FLAG 352 192 D7
FLAG 352 304 VOUT
FLAG 144 416 COM
FLAG 112 416 AVEE
FLAG 160 -144 AVDD
FLAG -64 160 PH2
FLAG -64 128 PH1
FLAG -64 96 AIN
SYMBOL pipe_line_adc_8bit 160 128 R0
SYMATTR InstName X1
SYMBOL voltage 192 416 R0
WINDOW 123 0 0 Left 2
WINDOW 39 0 0 Left 2
SYMATTR InstName V1
SYMATTR Value 0v
SYMBOL voltage 48 416 R0
WINDOW 123 0 0 Left 2
WINDOW 39 0 0 Left 2
SYMATTR InstName V2
SYMATTR Value -1.6
SYMBOL voltage -160 416 R0
WINDOW 3 -53 158 Left 2
WINDOW 123 0 0 Left 2
WINDOW 39 0 0 Left 2
SYMATTR Value PULSE(-1.6v 1.6v 0.3m 1u 1u 0.2m 0.6m)
SYMATTR InstName V3
SYMBOL voltage -240 304 R0
WINDOW 3 -48 131 Left 2
WINDOW 123 0 0 Left 2
WINDOW 39 0 0 Left 2
SYMATTR Value PULSE(-1.6 1.6 0 1u 1u 0.2m 0.6m)
SYMATTR InstName V4
SYMBOL voltage -544 112 R0
WINDOW 123 0 0 Left 2
WINDOW 39 0 0 Left 2
SYMATTR InstName V5
SYMATTR Value 1.6
SYMBOL voltage -384 176 R0
WINDOW 3 -48 131 Left 2
WINDOW 123 0 0 Left 2
WINDOW 39 0 0 Left 2
SYMATTR Value PWL(0 -1.6 0.1 1.6)
SYMATTR InstName V6
SYMBOL voltage -640 16 R0
WINDOW 123 0 0 Left 2
WINDOW 39 0 0 Left 2
SYMATTR InstName V7
SYMATTR Value 1.6
SYMBOL voltage -720 -80 R0
WINDOW 123 0 0 Left 2
WINDOW 39 0 0 Left 2
SYMATTR InstName V8
SYMATTR Value -1.6
TEXT -560 -328 Left 2 !.include "BSIM3V3N.mod"\n.include "BSIM3V3P.mod"\n.include "PK35_minimum_tt.lib"\n.param mismatch=1 mos_sigma_global=1 Cap_Sigma = 0
TEXT -576 616 Left 2 !.tran 0 0.1s 0 1u
