Version 4
SHEET 1 4860 5172
WIRE 880 496 784 496
WIRE 880 544 880 496
WIRE 976 576 896 576
WIRE 880 640 880 608
WIRE 880 640 784 640
WIRE 1328 1392 1328 1360
FLAG 784 496 vdda
IOPIN 784 496 In
FLAG 784 640 vssa
IOPIN 784 640 In
FLAG 976 576 vref
IOPIN 976 576 Out
FLAG 1328 1392 0
SYMBOL BGR_5V 880 576 R0
SYMATTR InstName X7
TEXT 752 400 Left 2 ;.lib tsmc035sige.lib
TEXT 744 136 Left 2 !vvdda vdda 0 dc {vda}\nvvssa vssa 0 dc 0\n*.param vda=5
TEXT 1024 400 Left 2 ;.dc vvdda 0 4 0.001
TEXT 760 720 Left 2 !.step temp list -40 -20 0 25 40 80 100 120
TEXT 1232 400 Left 2 !.op
TEXT 752 368 Left 2 !.inc PK35_all_tt.lib
TEXT 752 344 Left 2 ;.inc merge.lib
TEXT 744 224 Left 2 !.step param vda list 2.5 3.0 3.5 4.0 4.5 5.0 5.5 6.0
