Version 4
SHEET 1 3512 5012
WIRE 640 1344 528 1344
WIRE 304 1360 192 1360
WIRE 528 1456 528 1424
WIRE 192 1472 192 1440
WIRE -32 1536 -144 1536
WIRE 304 1536 192 1536
WIRE 640 1536 528 1536
WIRE -144 1568 -144 1536
WIRE 192 1568 192 1536
WIRE 528 1568 528 1536
WIRE -144 1680 -144 1648
WIRE 192 1680 192 1648
WIRE 528 1680 528 1648
WIRE 128 1824 64 1824
WIRE 288 1824 128 1824
WIRE 288 1856 288 1824
WIRE 208 1872 96 1872
WIRE 480 1904 384 1904
WIRE 208 1936 96 1936
WIRE 128 1968 128 1824
WIRE 208 1968 128 1968
WIRE 96 2000 64 2000
WIRE 288 2000 288 1952
WIRE 288 2000 96 2000
WIRE 96 2032 96 2000
FLAG 528 1680 0
FLAG 528 1456 0
FLAG 640 1536 INN
FLAG 640 1344 INP1
FLAG 192 1472 0
FLAG 304 1360 INP
FLAG 192 1680 0
FLAG 304 1536 INN1
FLAG -144 1680 0
FLAG -32 1536 VDDA
FLAG 480 1904 XOUTRR
IOPIN 480 1904 Out
FLAG 64 1824 VDDA
FLAG 64 2000 VSSA
FLAG 96 2032 0
FLAG 96 1936 INN
FLAG 96 1872 INP
SYMBOL voltage 528 1552 R0
WINDOW 123 0 0 Left 0
WINDOW 39 0 0 Left 0
SYMATTR InstName V1
SYMATTR Value 2.5
SYMBOL voltage 528 1328 R0
WINDOW 123 24 124 Left 2
WINDOW 39 0 0 Left 0
SYMATTR InstName V2
SYMATTR Value 2.5
SYMBOL voltage 192 1344 R0
WINDOW 123 0 0 Left 0
WINDOW 39 0 0 Left 0
SYMATTR InstName V3
SYMATTR Value PWL(0 5 100m 0 200m 5)
SYMBOL voltage 192 1552 R0
WINDOW 123 0 0 Left 0
WINDOW 39 0 0 Left 0
SYMATTR InstName V4
SYMATTR Value PWL(0 0 1m 5 2m 0)
SYMBOL voltage -144 1552 R0
WINDOW 123 0 0 Left 0
WINDOW 39 0 0 Left 0
SYMATTR InstName V5
SYMATTR Value 5
SYMBOL COMP_RR5V 240 1904 R0
SYMATTR InstName X1
TEXT 296 1224 Left 2 !;tran 0 0.1 0 1000
TEXT 288 1176 Left 2 !*.dc vvdda 0 4 0.001
TEXT 312 1088 Left 2 !*.step temp list -40 -20 0 25 40 80 100 120
TEXT 496 1176 Left 2 !.op
TEXT 16 1144 Left 2 !.inc PK35_all_tt.lib
TEXT 304 1048 Left 2 !.tran 300m
