Version 4
SHEET 1 2052 2264
WIRE 560 176 288 176
WIRE -64 192 -176 192
WIRE -400 208 -512 208
WIRE 288 224 288 176
WIRE 288 224 144 224
WIRE 288 256 288 224
WIRE 288 256 272 256
WIRE 416 256 288 256
WIRE 416 272 416 256
WIRE 336 288 272 288
WIRE -176 304 -176 272
WIRE -512 320 -512 288
WIRE 560 320 512 320
WIRE 576 320 560 320
WIRE 336 352 272 352
WIRE 560 368 560 320
WIRE -736 384 -848 384
WIRE -400 384 -512 384
WIRE -64 384 -176 384
WIRE 144 384 144 224
WIRE 336 384 144 384
WIRE -848 416 -848 384
WIRE -512 416 -512 384
WIRE -176 416 -176 384
WIRE 416 432 416 368
WIRE 416 432 304 432
WIRE 416 448 416 432
WIRE 560 480 560 432
WIRE -848 528 -848 496
WIRE -512 528 -512 496
WIRE -176 528 -176 496
FLAG -176 528 0
FLAG -176 304 0
FLAG -64 384 INN
FLAG -64 192 INP1
FLAG -512 320 0
FLAG -400 208 INP
FLAG -512 528 0
FLAG -400 384 INN1
FLAG 272 352 inn
IOPIN 272 352 In
FLAG 272 288 inp
IOPIN 272 288 In
FLAG 576 320 out
IOPIN 576 320 Out
FLAG 272 256 vdda
IOPIN 272 256 In
FLAG 304 432 vssa
IOPIN 304 432 In
FLAG -848 528 0
FLAG -736 384 VDDA
FLAG 416 448 0
FLAG 560 480 0
SYMBOL voltage -176 400 R0
WINDOW 123 0 0 Left 0
WINDOW 39 0 0 Left 0
SYMATTR InstName V1
SYMATTR Value 2.5
SYMBOL voltage -176 176 R0
WINDOW 123 24 124 Left 2
WINDOW 39 0 0 Left 0
SYMATTR InstName V2
SYMATTR Value 1.5
SYMBOL voltage -512 192 R0
WINDOW 123 0 0 Left 0
WINDOW 39 0 0 Left 0
SYMATTR InstName V4
SYMATTR Value PWL(0 5 100m 0 200m 5)
SYMBOL voltage -512 400 R0
WINDOW 123 0 0 Left 0
WINDOW 39 0 0 Left 0
SYMATTR InstName V5
SYMATTR Value PWL(0 0 1m 5 2m 0)
SYMBOL voltage -848 400 R0
WINDOW 123 0 0 Left 0
WINDOW 39 0 0 Left 0
SYMATTR InstName V6
SYMATTR Value 5
SYMBOL COMP_PLF 368 320 R0
SYMATTR InstName X1
SYMBOL cap 544 368 R0
SYMATTR InstName C1
SYMATTR Value 1p
TEXT 248 32 Left 2 !;tran 0 0.1 0 1000
TEXT 240 -16 Left 2 !*.dc vvdda 0 4 0.001
TEXT 264 -104 Left 2 !*.step temp list -40 -20 0 25 40 80 100 120
TEXT 448 -16 Left 2 !.op
TEXT -32 -48 Left 2 !.inc PK35_all_tt.lib
TEXT 256 -144 Left 2 !.tran 300m
