* C:\Users\seijirom\Dropbox\work\LRmasterSlice\000000\COMP_NLF.asc

.subckt comp_nlf INP INN XSTBY OUT VDDA VSSA
M6 STBY xstby VSSA VSSA nch l=1.0u w=5.0u pd=w+l+l ps=pd ad=w*l as=ad m=1
M9 VDDA xstby STBY VDDA pch l=1.0u w=10.0u pd=w+l+l ps=pd ad=w*l as=ad m=1
M_18 N002 N005 N014 vssa nch l=1.2u w=10.0u pd=w+l+l ps=pd ad=w*l as=ad m=1
M_14 N001 N002 N005 N001 pch l=1.2u w=54.0u pd=w+l+l ps=pd ad=w*l as=ad m=2
M_17 N001 N002 N002 N001 pch l=1.2u w=54.0u pd=w+l+l ps=pd ad=w*l as=ad m=2
M_15 N005 N005 N013 vssa nch l=1.2u w=10.0u pd=w+l+l ps=pd ad=w*l as=ad m=1
M_20 N016 XSTBY vssa vssa nch l=1.2u w=24u pd=w+l+l ps=pd ad=w*l as=ad m=1
M_19 N014 N013 N016 vssa nch l=1.2u w=30.0u pd=w+l+l ps=pd ad=w*l as=ad m=1
M_16 N013 N013 vssa vssa nch l=1.2u w=30.0u pd=w+l+l ps=pd ad=w*l as=ad m=1
M_4 N001 N004 N006 N001 pch l=1.2u w=36.0u pd=w+l+l ps=pd ad=w*l as=ad m=1
M_5 N015 N012 vssa vssa nch l=1.2u w=54.0u pd=w+l+l ps=pd ad=w*l as=ad m=1
M_8 N001 N006 N009 N001 pch l=1.2u w=40.0u pd=w+l+l ps=pd ad=w*l as=ad m=6
M_7 N009 N012 vssa vssa nch l=1.2u w=90.08u pd=w+l+l ps=pd ad=w*l as=ad m=2
M_100 out N011 vssa vssa nch l=1.2u w=90.0u ad=w*l as=ad pd=w+l+l ps=pd m=2
M_101 N001 N011 out N001 pch l=1.2u w=40.0u pd=w+l+l ps=pd ad=w*l as=ad m=6
C2 N009 N008 1p
C7 out N009 1p
M29 N009 STBY N011 N001 pch l=1.0u w=20.0u pd=w+l+l ps=pd ad=w*l as=ad m=1
M30 N011 XSTBY N009 vssa nch l=1.0u w=12.u pd=w+l+l ps=pd ad=w*l as=ad m=1
M31 N011 STBY VSSA VSSA nch l=1.0u w=12.u pd=w+l+l ps=pd ad=w*l as=ad m=1
M_13 N001 N002 N012 N001 pch l=1.2u w=54.0u pd=w+l+l ps=pd ad=w*l as=ad m=1
M_11 N001 N003 N003 N001 pch l=1.2u w=72.0u pd=w+l+l ps=pd ad=w*l as=ad m=1
M_10 N003 N007 N007 N001 pch l=1.2u w=72.0u pd=w+l+l ps=pd ad=w*l as=ad m=1
M_12 N012 N012 vssa vssa nch l=1.2u w=54.0u pd=w+l+l ps=pd ad=w*l as=ad m=1
M_9 N007 N012 vssa vssa nch l=1.2u w=54.0u pd=w+l+l ps=pd ad=w*l as=ad m=1
M_1 N004 inp N015 N010 nch l=1.2u w=6.0u pd=w+l+l ps=pd ad=w*l as=ad m=1
M_2 N006 inn N015 N010 nch l=1.2u w=6.0u pd=w+l+l ps=pd ad=w*l as=ad m=1
M_3 N001 N004 N004 N001 pch l=1.2u w=36.0u pd=w+l+l ps=pd ad=w*l as=ad m=1
M_6 N006 N007 N008 N001 pch l=1.2u w=55.0u pd=w+l+l ps=pd ad=w*l as=ad m=1
R2 N001 vdda 0.01
.ends comp_nlf

